version 2
1
9
.tran 10m 1 0{return}.kicad adjustpaths{return}.save all{return}.probe alli
2
1
V(Net-_Q1-D_)
 
1
V(Net-_R6-Pad2_)
 
